<?xml version="1.0"?>
<!-- 
194 Cars leaving the Computer Science Building and campus of the University of Erlangen-Nuremberg
Copyright (C) 2008 Christoph Sommer <christoph.sommer@informatik.uni-erlangen.de>
Licensed under the Creative Commons Attribution-ShareAlike 2.0 license <http://creativecommons.org/licenses/by-sa/2.0/>
-->
<routes>
   <vehicle id="rww_veh" depart="0.00" >
   <route edges="-5445204#3"/>
   <stop parkingArea="RoadWorks" duration="40"/>
   </vehicle>
   <vType id="vtype0" accel="2.6" decel="4.5" sigma="0.5" length="2.5" minGap="2.5" maxSpeed="14" color="1,1,0"/>
   <vType id="vtype1" accel="2.6" decel="4.5" sigma="0.5" length="2.5" minGap="2.5" maxSpeed="max" color="1,0,0" departSpeed="max"/>
   <vType id="ambulance" guiShape="emergency" vClass="emergency" length="4.5" />
   <route id="route0" edges="-39539626 -5445204#2 -5445204#1 113939244#2 -126606716 23339459 30405358#1 85355912 85355911#0 85355911#1 30405356 5931612 30350450#0 30350450#1 30350450#2 4006702#0 4006702#1 4900043 4900041#1"/>
   <route id="route1" edges="-5445204#3 39539626"/>
   <flow id="flow0" type="vtype0" route="route0" begin="0" period="3" number="0"/>
   <flow id="flow1" type="vtype1" route="route1" begin="0" depart="2.00" period="3" number="0"/>
   
   <vehicle id="gen" vClass="truck" depart="2.00" color="1,1,1" impatience="1.0" laneChangeModel= "SL2015" maxSpeedLat="10" sigma="10.5" route="route1" guiShape="motorcycle">
   <!--route edges="-5445204#3 39539626"/>
   departPos="300" arrivalPos="300"
   <restriction vClass="emergency" speed="30.89"/>
   <param key="has.bluelight.device" value="true"/-->
   </vehicle>
   <flow id="ambulance" type="ambulance" route="route0" begin="20.00" period="3" number="1"/>
   <!--vehicle id="eebl_veh" depart="15.00" color="1,1,1" guiShape="bus" maxSpeed="10" impatience="1.0" laneChangeModel= "DK2008" speed="100">
   <route edges="-39539626 -5445204#2 -5445204#1 113939244#2 -126606716 23339459 30405358#1 85355912 85355911#0 85355911#1 30405356 5931612 30350450#0 30350450#1 30350450#2 4006702#0 4006702#1 4900043 4900041#1"/>
   </vehicle-->
   <!--vehicle id="host_veh" depart="5.00" color="0,1,0" accel="7.6" maxSpeed="200">
   <route edges="-39539626 -5445204#2 -5445204#1 113939244#2 -126606716 23339459 30405358#1 85355912 85355911#0 85355911#1 30405356 5931612 30350450#0 30350450#1 30350450#2 4006702#0 4006702#1 4900043 4900041#1"/>
   </vehicle>
   <vehicle id="evw_veh" accel="7.6" maxSpeed="200" depart="20.00" arrivalPos="max" color="1,0,0" guiShape="emergency">
   <route edges="-39539626 -5445204#2 -5445204#1 113939244#2 -126606716 23339459 30405358#1 85355912 85355911#0 85355911#1 30405356 5931612 30350450#0 30350450#1 30350450#2 4006702#0 4006702#1 4900043 4900041#1"/>
   </vehicle-->
   


</routes>
