<?xml version="1.0" encoding="UTF-8"?>

<!-- generated on 2021-07-15 13:39:10 by Eclipse SUMO netedit Version 1.9.2
<configuration xmlns:xsi="http://www.w3.org/2001/XMLSchema-instance" xsi:noNamespaceSchemaLocation="http://sumo.dlr.de/xsd/netconvertConfiguration.xsd">

    <input>
        <sumo-net-file value="/home/nazlican/soar-robotics/iit_campus_routes.net.xml"/>
    </input>

    <output>
        <output-file value="/home/nazlican/soar-robotics/iit_campus_routes.net.xml"/>
    </output>

    <processing>
        <geometry.min-radius.fix.railways value="false"/>
        <geometry.max-grade.fix value="false"/>
        <offset.disable-normalization value="true"/>
        <lefthand value="false"/>
    </processing>

    <junctions>
        <no-turnarounds value="true"/>
        <junctions.corner-detail value="5"/>
        <junctions.limit-turn-speed value="5.5"/>
        <rectangular-lane-cut value="false"/>
    </junctions>

    <pedestrian>
        <walkingareas value="false"/>
    </pedestrian>

    <report>
        <aggregate-warnings value="5"/>
    </report>

</configuration>
-->

<net version="1.9" junctionCornerDetail="5" limitTurnSpeed="5.50" xmlns:xsi="http://www.w3.org/2001/XMLSchema-instance" xsi:noNamespaceSchemaLocation="http://sumo.dlr.de/xsd/net_file.xsd">

    <location netOffset="-189690.80,-1941572.76" convBoundary="0.00,0.00,9045.21,9611.63" origBoundary="78.076466,17.539662,78.162029,17.626313" projParameter="+proj=utm +zone=44 +ellps=WGS84 +datum=WGS84 +units=m +no_defs"/>

    <type id="highway.bridleway" priority="1" numLanes="1" speed="2.78" allow="pedestrian" oneway="1" width="2.00"/>
    <type id="highway.bus_guideway" priority="1" numLanes="1" speed="27.78" allow="bus" oneway="1"/>
    <type id="highway.cycleway" priority="1" numLanes="1" speed="8.33" allow="bicycle" oneway="1" width="1.00"/>
    <type id="highway.footway" priority="1" numLanes="1" speed="2.78" allow="pedestrian" oneway="1" width="2.00"/>
    <type id="highway.ford" priority="1" numLanes="1" speed="2.78" allow="army" oneway="1"/>
    <type id="highway.living_street" priority="2" numLanes="1" speed="2.78" disallow="tram rail_urban rail rail_electric rail_fast ship" oneway="1"/>
    <type id="highway.motorway" priority="14" numLanes="2" speed="39.44" allow="private emergency authority army vip passenger hov taxi bus coach delivery truck trailer motorcycle evehicle custom1 custom2" oneway="1"/>
    <type id="highway.motorway_link" priority="9" numLanes="1" speed="22.22" allow="private emergency authority army vip passenger hov taxi bus coach delivery truck trailer motorcycle evehicle custom1 custom2" oneway="1"/>
    <type id="highway.path" priority="1" numLanes="1" speed="2.78" allow="pedestrian bicycle" oneway="1" width="2.00"/>
    <type id="highway.pedestrian" priority="1" numLanes="1" speed="2.78" allow="pedestrian" oneway="1" width="2.00"/>
    <type id="highway.primary" priority="12" numLanes="2" speed="27.78" disallow="tram rail_urban rail rail_electric rail_fast ship" oneway="1"/>
    <type id="highway.primary_link" priority="7" numLanes="1" speed="22.22" disallow="tram rail_urban rail rail_electric rail_fast ship" oneway="1"/>
    <type id="highway.raceway" priority="15" numLanes="2" speed="83.33" allow="vip" oneway="1"/>
    <type id="highway.residential" priority="3" numLanes="1" speed="13.89" disallow="tram rail_urban rail rail_electric rail_fast ship" oneway="1"/>
    <type id="highway.secondary" priority="11" numLanes="1" speed="27.78" disallow="tram rail_urban rail rail_electric rail_fast ship" oneway="1"/>
    <type id="highway.secondary_link" priority="6" numLanes="1" speed="22.22" disallow="tram rail_urban rail rail_electric rail_fast ship" oneway="1"/>
    <type id="highway.service" priority="1" numLanes="1" speed="5.56" allow="pedestrian delivery bicycle" oneway="1"/>
    <type id="highway.stairs" priority="1" numLanes="1" speed="1.39" allow="pedestrian" oneway="1" width="2.00"/>
    <type id="highway.step" priority="1" numLanes="1" speed="1.39" allow="pedestrian" oneway="1" width="2.00"/>
    <type id="highway.steps" priority="1" numLanes="1" speed="1.39" allow="pedestrian" oneway="1" width="2.00"/>
    <type id="highway.tertiary" priority="10" numLanes="1" speed="22.22" disallow="tram rail_urban rail rail_electric rail_fast ship" oneway="1"/>
    <type id="highway.tertiary_link" priority="5" numLanes="1" speed="22.22" disallow="tram rail_urban rail rail_electric rail_fast ship" oneway="1"/>
    <type id="highway.track" priority="1" numLanes="1" speed="5.56" allow="pedestrian motorcycle moped bicycle" oneway="1"/>
    <type id="highway.trunk" priority="13" numLanes="2" speed="27.78" disallow="pedestrian bicycle tram rail_urban rail rail_electric rail_fast ship" oneway="1"/>
    <type id="highway.trunk_link" priority="8" numLanes="1" speed="22.22" disallow="pedestrian bicycle tram rail_urban rail rail_electric rail_fast ship" oneway="1"/>
    <type id="highway.unclassified" priority="4" numLanes="1" speed="13.89" disallow="tram rail_urban rail rail_electric rail_fast ship" oneway="1"/>
    <type id="highway.unsurfaced" priority="1" numLanes="1" speed="8.33" disallow="tram rail_urban rail rail_electric rail_fast ship" oneway="1"/>
    <type id="railway.highspeed" priority="21" numLanes="1" speed="69.44" allow="rail_fast" oneway="1"/>
    <type id="railway.light_rail" priority="19" numLanes="1" speed="27.78" allow="rail_urban" oneway="1"/>
    <type id="railway.preserved" priority="16" numLanes="1" speed="27.78" allow="rail" oneway="1"/>
    <type id="railway.rail" priority="20" numLanes="1" speed="44.44" allow="rail" oneway="1"/>
    <type id="railway.subway" priority="18" numLanes="1" speed="27.78" allow="rail_urban" oneway="1"/>
    <type id="railway.tram" priority="17" numLanes="1" speed="13.89" allow="tram" oneway="1"/>

    <edge id=":2284444570_0" function="internal">
        <lane id=":2284444570_0_0" index="0" allow="motorcycle moped" speed="6.28" length="7.89" shape="5776.64,4199.02 5776.83,4197.54 5777.83,4196.30 5779.64,4195.30 5782.27,4194.55"/>
    </edge>
    <edge id=":2284444570_1" function="internal">
        <lane id=":2284444570_1_0" index="0" allow="pedestrian motorcycle moped bicycle" speed="3.65" length="4.67" shape="5776.64,4199.02 5777.27,4197.72 5778.01,4197.22 5778.85,4197.50 5779.81,4198.58"/>
    </edge>
    <edge id=":2284444570_2" function="internal">
        <lane id=":2284444570_2_0" index="0" disallow="pedestrian bicycle tram rail_urban rail rail_electric rail_fast ship" speed="27.78" length="9.43" shape="5772.38,4193.37 5781.61,4191.41"/>
        <lane id=":2284444570_2_1" index="1" disallow="pedestrian bicycle tram rail_urban rail rail_electric rail_fast ship" speed="27.78" length="9.43" shape="5773.05,4196.50 5782.27,4194.55"/>
    </edge>
    <edge id=":2284444570_4" function="internal">
        <lane id=":2284444570_4_0" index="0" allow="motorcycle moped" speed="6.01" length="7.97" shape="5773.05,4196.50 5775.83,4196.13 5777.88,4196.35 5779.21,4197.17 5779.81,4198.58"/>
    </edge>
    <edge id=":2284444590_0" function="internal">
        <lane id=":2284444590_0_0" index="0" disallow="pedestrian bicycle tram rail_urban rail rail_electric rail_fast ship" speed="27.78" length="9.42" shape="5289.85,4290.00 5280.63,4291.93"/>
        <lane id=":2284444590_0_1" index="1" disallow="pedestrian bicycle tram rail_urban rail rail_electric rail_fast ship" speed="27.78" length="9.42" shape="5289.20,4286.87 5279.97,4288.80"/>
    </edge>
    <edge id=":2284444590_2" function="internal">
        <lane id=":2284444590_2_0" index="0" disallow="pedestrian bicycle tram rail_urban rail rail_electric rail_fast ship" speed="6.33" length="7.91" shape="5289.20,4286.87 5286.49,4287.23 5284.42,4287.04 5283.00,4286.31 5282.20,4285.03"/>
    </edge>
    <edge id=":2284444590_3" function="internal">
        <lane id=":2284444590_3_0" index="0" disallow="pedestrian bicycle tram rail_urban rail rail_electric rail_fast ship" speed="5.99" length="8.01" shape="5285.27,4284.09 5285.32,4285.66 5284.46,4286.96 5282.67,4288.01 5279.97,4288.80"/>
    </edge>
    <edge id=":2284444590_4" function="internal">
        <lane id=":2284444590_4_0" index="0" disallow="tram rail_urban rail rail_electric rail_fast ship" speed="3.65" length="4.67" shape="5285.27,4284.09 5284.85,4285.48 5284.20,4286.09 5283.32,4285.94 5282.20,4285.03"/>
    </edge>
    <edge id=":2284444633_0" function="internal">
        <lane id=":2284444633_0_0" index="0" disallow="pedestrian bicycle tram rail_urban rail rail_electric rail_fast ship" speed="6.07" length="7.79" shape="4402.15,4520.78 4402.23,4519.35 4403.18,4518.15 4404.98,4517.16 4407.64,4516.39"/>
    </edge>
    <edge id=":2284444633_1" function="internal">
        <lane id=":2284444633_1_0" index="0" disallow="tram rail_urban rail rail_electric rail_fast ship" speed="3.65" length="4.67" shape="4402.15,4520.78 4402.67,4519.44 4403.36,4518.87 4404.23,4519.09 4405.27,4520.08"/>
    </edge>
    <edge id=":2284444633_2" function="internal">
        <lane id=":2284444633_2_0" index="0" disallow="pedestrian bicycle tram rail_urban rail rail_electric rail_fast ship" speed="27.78" length="9.45" shape="4397.72,4515.30 4406.97,4513.26"/>
        <lane id=":2284444633_2_1" index="1" disallow="pedestrian bicycle tram rail_urban rail rail_electric rail_fast ship" speed="27.78" length="9.45" shape="4398.43,4518.42 4407.64,4516.39"/>
    </edge>
    <edge id=":2284444633_4" function="internal">
        <lane id=":2284444633_4_0" index="0" disallow="pedestrian bicycle tram rail_urban rail rail_electric rail_fast ship" speed="6.08" length="7.78" shape="4398.43,4518.42 4401.17,4518.00 4403.22,4518.13 4404.59,4518.83 4405.27,4520.08"/>
    </edge>
    <edge id=":2284444649_0" function="internal">
        <lane id=":2284444649_0_0" index="0" disallow="pedestrian bicycle tram rail_urban rail rail_electric rail_fast ship" speed="5.86" length="11.35" shape="4189.77,4572.47 4187.26,4570.34 4186.83,4568.50 4188.48,4566.97 4192.21,4565.73"/>
    </edge>
    <edge id=":2284444649_1" function="internal">
        <lane id=":2284444649_1_0" index="0" disallow="tram rail_urban rail rail_electric rail_fast ship" speed="3.65" length="4.67" shape="4189.77,4572.47 4189.19,4571.15 4189.29,4570.26 4190.06,4569.80 4191.50,4569.78"/>
    </edge>
    <edge id=":2284444649_2" function="internal">
        <lane id=":2284444649_2_0" index="0" disallow="pedestrian bicycle tram rail_urban rail rail_electric rail_fast ship" speed="27.78" length="11.98" shape="4179.79,4565.35 4191.49,4562.61"/>
        <lane id=":2284444649_2_1" index="1" disallow="pedestrian bicycle tram rail_urban rail rail_electric rail_fast ship" speed="27.78" length="11.98" shape="4180.57,4568.45 4192.21,4565.73"/>
    </edge>
    <edge id=":2284444649_4" function="internal">
        <lane id=":2284444649_4_0" index="0" disallow="pedestrian bicycle tram rail_urban rail rail_electric rail_fast ship" speed="10.80" length="11.32" shape="4180.57,4568.45 4183.65,4567.94 4186.50,4567.98 4189.11,4568.60 4191.50,4569.78"/>
    </edge>
    <edge id=":3105389077_0" function="internal">
        <lane id=":3105389077_0_0" index="0" disallow="tram rail_urban rail rail_electric rail_fast ship" speed="6.25" length="9.05" shape="4719.32,4573.30 4716.82,4573.69 4715.15,4574.78 4714.30,4576.59 4714.28,4579.12"/>
    </edge>
    <edge id=":3105389077_1" function="internal">
        <lane id=":3105389077_1_0" index="0" disallow="tram rail_urban rail rail_electric rail_fast ship" speed="3.65" length="2.52" shape="4719.32,4573.30 4718.11,4572.51 4717.70,4571.72 4717.78,4571.55"/>
    </edge>
    <edge id=":3105389077_4" function="internal">
        <lane id=":3105389077_4_0" index="0" disallow="tram rail_urban rail rail_electric rail_fast ship" speed="3.65" length="2.15" shape="4717.78,4571.55 4718.09,4570.91 4719.28,4570.10"/>
    </edge>
    <edge id=":3105389077_2" function="internal">
        <lane id=":3105389077_2_0" index="0" disallow="tram rail_urban rail rail_electric rail_fast ship" speed="7.17" length="9.80" shape="4712.09,4564.89 4712.88,4567.19 4714.35,4568.83 4716.48,4569.80 4719.28,4570.10"/>
    </edge>
    <edge id=":3105389077_3" function="internal">
        <lane id=":3105389077_3_0" index="0" disallow="tram rail_urban rail rail_electric rail_fast ship" speed="13.89" length="14.40" shape="4712.09,4564.89 4714.28,4579.12"/>
    </edge>
    <edge id=":3105389091_0" function="internal">
        <lane id=":3105389091_0_0" index="0" disallow="tram rail_urban rail rail_electric rail_fast ship" speed="10.47" length="12.56" shape="5193.73,6281.46 5190.76,6280.52 5187.75,6280.33 5184.72,6280.89 5181.64,6282.19"/>
    </edge>
    <edge id=":3105389091_1" function="internal">
        <lane id=":3105389091_1_0" index="0" disallow="tram rail_urban rail rail_electric rail_fast ship" speed="9.03" length="3.84" shape="5193.73,6281.46 5190.35,6279.64"/>
    </edge>
    <edge id=":3105389091_2" function="internal">
        <lane id=":3105389091_2_0" index="0" disallow="tram rail_urban rail rail_electric rail_fast ship" speed="3.80" length="2.34" shape="5193.73,6281.46 5192.61,6280.55 5192.29,6279.71"/>
    </edge>
    <edge id=":3105389091_9" function="internal">
        <lane id=":3105389091_9_0" index="0" disallow="tram rail_urban rail rail_electric rail_fast ship" speed="9.03" length="8.67" shape="5190.35,6279.64 5190.25,6279.58 5187.76,6277.49 5186.27,6275.19 5185.78,6272.67"/>
    </edge>
    <edge id=":3105389091_10" function="internal">
        <lane id=":3105389091_10_0" index="0" disallow="tram rail_urban rail rail_electric rail_fast ship" speed="3.80" length="2.34" shape="5192.29,6279.71 5192.77,6278.95 5194.04,6278.27"/>
    </edge>
    <edge id=":3105389091_3" function="internal">
        <lane id=":3105389091_3_0" index="0" disallow="tram rail_urban rail rail_electric rail_fast ship" speed="6.52" length="8.43" shape="5188.98,6272.68 5189.29,6274.95 5190.24,6276.63 5191.82,6277.74 5194.04,6278.27"/>
    </edge>
    <edge id=":3105389091_4" function="internal">
        <lane id=":3105389091_4_0" index="0" disallow="tram rail_urban rail rail_electric rail_fast ship" speed="9.50" length="12.59" shape="5188.98,6272.68 5188.51,6275.35 5187.14,6277.82 5184.85,6280.10 5181.64,6282.19"/>
    </edge>
    <edge id=":3105389091_5" function="internal">
        <lane id=":3105389091_5_0" index="0" disallow="tram rail_urban rail rail_electric rail_fast ship" speed="3.65" length="4.67" shape="5188.98,6272.68 5188.17,6273.88 5187.37,6274.28 5186.57,6273.88 5185.78,6272.67"/>
    </edge>
    <edge id=":3105389091_6" function="internal">
        <lane id=":3105389091_6_0" index="0" disallow="tram rail_urban rail rail_electric rail_fast ship" speed="6.93" length="8.69" shape="5180.94,6278.98 5183.05,6278.20 5184.56,6276.89 5185.47,6275.04 5185.78,6272.67"/>
    </edge>
    <edge id=":3105389091_7" function="internal">
        <lane id=":3105389091_7_0" index="0" disallow="tram rail_urban rail rail_electric rail_fast ship" speed="13.89" length="13.18" shape="5180.94,6278.98 5184.35,6278.36 5187.46,6278.05 5190.58,6278.03 5194.04,6278.27"/>
    </edge>
    <edge id=":3105389091_8" function="internal">
        <lane id=":3105389091_8_0" index="0" disallow="tram rail_urban rail rail_electric rail_fast ship" speed="3.82" length="2.10" shape="5180.94,6278.98 5182.32,6279.52 5182.71,6280.00"/>
    </edge>
    <edge id=":3105389091_11" function="internal">
        <lane id=":3105389091_11_0" index="0" disallow="tram rail_urban rail rail_electric rail_fast ship" speed="3.82" length="2.71" shape="5182.71,6280.00 5182.90,6280.23 5182.67,6281.13 5181.64,6282.19"/>
    </edge>
    <edge id=":343941711#5-AddedOnRampNode_0" function="internal">
        <lane id=":343941711#5-AddedOnRampNode_0_0" index="0" disallow="pedestrian bicycle tram rail_urban rail rail_electric rail_fast ship" speed="27.78" length="8.00" shape="4870.57,4399.93 4878.31,4397.88"/>
        <lane id=":343941711#5-AddedOnRampNode_0_1" index="1" disallow="pedestrian bicycle tram rail_urban rail rail_electric rail_fast ship" speed="27.78" length="8.00" shape="4871.39,4403.03 4879.12,4400.98"/>
    </edge>
    <edge id=":3507326644_0" function="internal">
        <lane id=":3507326644_0_0" index="0" disallow="tram rail_urban rail rail_electric rail_fast ship" speed="3.65" length="4.67" shape="5791.84,9102.77 5791.33,9104.12 5790.64,9104.69 5789.77,9104.48 5788.72,9103.49"/>
    </edge>
    <edge id=":4514137470_0" function="internal">
        <lane id=":4514137470_0_0" index="0" disallow="tram rail_urban rail rail_electric rail_fast ship" speed="3.65" length="4.67" shape="3411.89,5231.22 3410.93,5230.13 3410.75,5229.26 3411.35,5228.59 3412.71,5228.12"/>
    </edge>
    <edge id=":5387520356_0" function="internal">
        <lane id=":5387520356_0_0" index="0" disallow="tram rail_urban rail rail_electric rail_fast ship" speed="3.65" length="4.67" shape="6381.19,5687.73 6380.51,5689.00 6379.75,5689.47 6378.92,5689.15 6378.01,5688.03"/>
    </edge>
    <edge id=":5387520357_0" function="internal">
        <lane id=":5387520357_0_0" index="0" allow="pedestrian motorcycle moped bicycle" speed="5.56" length="14.32" shape="5791.07,4238.04 5776.98,4240.62"/>
    </edge>
    <edge id=":5387520357_1" function="internal">
        <lane id=":5387520357_1_0" index="0" allow="pedestrian motorcycle moped bicycle" speed="5.56" length="14.33" shape="5791.07,4238.04 5787.13,4238.16 5784.13,4236.97 5782.09,4234.48 5781.01,4230.69"/>
    </edge>
    <edge id=":5387520357_2" function="internal">
        <lane id=":5387520357_2_0" index="0" allow="pedestrian motorcycle moped bicycle" speed="3.65" length="4.67" shape="5791.07,4238.04 5789.75,4237.46 5789.22,4236.74 5789.48,4235.89 5790.52,4234.89"/>
    </edge>
    <edge id=":5387520357_3" function="internal">
        <lane id=":5387520357_3_0" index="0" allow="pedestrian motorcycle moped bicycle" speed="5.56" length="9.03" shape="5784.18,4230.26 5784.86,4232.65 5786.15,4234.22 5788.04,4234.97 5790.52,4234.89"/>
    </edge>
    <edge id=":5387520357_4" function="internal">
        <lane id=":5387520357_4_0" index="0" allow="pedestrian motorcycle moped bicycle" speed="5.56" length="14.22" shape="5784.18,4230.26 5784.18,4234.18 5782.98,4237.22 5780.58,4239.37 5776.98,4240.62"/>
    </edge>
    <edge id=":5387520357_5" function="internal">
        <lane id=":5387520357_5_0" index="0" allow="pedestrian motorcycle moped bicycle" speed="3.65" length="4.67" shape="5784.18,4230.26 5783.55,4231.55 5782.81,4232.06 5781.96,4231.77 5781.01,4230.69"/>
    </edge>
    <edge id=":5387520357_6" function="internal">
        <lane id=":5387520357_6_0" index="0" allow="pedestrian motorcycle moped bicycle" speed="5.56" length="9.26" shape="5776.38,4237.47 5778.70,4236.66 5780.25,4235.26 5781.01,4233.27 5781.01,4230.69"/>
    </edge>
    <edge id=":5387520357_7" function="internal">
        <lane id=":5387520357_7_0" index="0" allow="pedestrian motorcycle moped bicycle" speed="5.56" length="14.38" shape="5776.38,4237.47 5790.52,4234.89"/>
    </edge>
    <edge id=":5387520357_8" function="internal">
        <lane id=":5387520357_8_0" index="0" allow="pedestrian motorcycle moped bicycle" speed="3.65" length="4.67" shape="5776.38,4237.47 5777.71,4238.03 5778.25,4238.74 5778.01,4239.61 5776.98,4240.62"/>
    </edge>
    <edge id=":5387520361_0" function="internal">
        <lane id=":5387520361_0_0" index="0" disallow="pedestrian bicycle tram rail_urban rail rail_electric rail_fast ship" speed="27.78" length="9.99" shape="6049.84,4135.14 6052.79,4134.52 6054.82,4134.12 6056.86,4133.82 6059.86,4133.50"/>
        <lane id=":5387520361_0_1" index="1" disallow="pedestrian bicycle tram rail_urban rail rail_electric rail_fast ship" speed="27.78" length="9.99" shape="6050.49,4138.28 6053.35,4137.67 6055.30,4137.28 6057.28,4137.00 6060.17,4136.68"/>
    </edge>
    <edge id=":5387520361_2" function="internal">
        <lane id=":5387520361_2_0" index="0" allow="motorcycle moped" speed="5.84" length="8.75" shape="6050.49,4138.28 6053.48,4137.93 6055.55,4138.36 6056.69,4139.56 6056.91,4141.52"/>
    </edge>
    <edge id=":5387520361_3" function="internal">
        <lane id=":5387520361_3_0" index="0" allow="motorcycle moped" speed="6.85" length="8.55" shape="6053.73,4141.19 6054.28,4139.45 6055.54,4138.11 6057.51,4137.19 6060.17,4136.68"/>
    </edge>
    <edge id=":5387520361_4" function="internal">
        <lane id=":5387520361_4_0" index="0" allow="pedestrian motorcycle moped bicycle" speed="3.65" length="4.67" shape="6053.73,4141.19 6054.65,4140.08 6055.48,4139.77 6056.24,4140.25 6056.91,4141.52"/>
    </edge>
    <edge id=":5387520365_0" function="internal">
        <lane id=":5387520365_0_0" index="0" disallow="tram rail_urban rail rail_electric rail_fast ship" speed="6.84" length="9.43" shape="6269.53,5506.43 6267.36,5505.28 6265.25,5505.10 6263.19,5505.88 6261.19,5507.64"/>
    </edge>
    <edge id=":5387520365_1" function="internal">
        <lane id=":5387520365_1_0" index="0" disallow="tram rail_urban rail rail_electric rail_fast ship" speed="22.22" length="14.40" shape="6269.53,5506.43 6258.02,5497.77"/>
    </edge>
    <edge id=":5387520365_2" function="internal">
        <lane id=":5387520365_2_0" index="0" disallow="tram rail_urban rail rail_electric rail_fast ship" speed="3.65" length="2.34" shape="6269.53,5506.43 6269.04,5505.07 6269.20,5504.19"/>
    </edge>
    <edge id=":5387520365_9" function="internal">
        <lane id=":5387520365_9_0" index="0" disallow="tram rail_urban rail rail_electric rail_fast ship" speed="3.65" length="2.34" shape="6269.20,5504.19 6270.00,5503.79 6271.44,5503.86"/>
    </edge>
    <edge id=":5387520365_3" function="internal">
        <lane id=":5387520365_3_0" index="0" disallow="tram rail_urban rail rail_electric rail_fast ship" speed="22.22" length="14.36" shape="6259.96,5495.22 6271.44,5503.86"/>
    </edge>
    <edge id=":5387520365_4" function="internal">
        <lane id=":5387520365_4_0" index="0" disallow="tram rail_urban rail rail_electric rail_fast ship" speed="7.88" length="5.89" shape="6259.96,5495.22 6262.77,5498.08 6263.44,5499.84"/>
    </edge>
    <edge id=":5387520365_5" function="internal">
        <lane id=":5387520365_5_0" index="0" disallow="tram rail_urban rail rail_electric rail_fast ship" speed="3.65" length="2.34" shape="6259.96,5495.22 6260.43,5496.58 6260.27,5497.46"/>
    </edge>
    <edge id=":5387520365_10" function="internal">
        <lane id=":5387520365_10_0" index="0" disallow="tram rail_urban rail rail_electric rail_fast ship" speed="7.88" length="8.58" shape="6263.44,5499.84 6263.91,5501.10 6263.39,5504.29 6261.19,5507.64"/>
    </edge>
    <edge id=":5387520365_11" function="internal">
        <lane id=":5387520365_11_0" index="0" disallow="tram rail_urban rail rail_electric rail_fast ship" speed="3.65" length="2.34" shape="6260.27,5497.46 6259.46,5497.86 6258.02,5497.77"/>
    </edge>
    <edge id=":5387520365_6" function="internal">
        <lane id=":5387520365_6_0" index="0" disallow="tram rail_urban rail rail_electric rail_fast ship" speed="6.36" length="9.04" shape="6258.79,5505.52 6260.16,5503.43 6260.49,5501.44 6259.78,5499.55 6258.02,5497.77"/>
    </edge>
    <edge id=":5387520365_7" function="internal">
        <lane id=":5387520365_7_0" index="0" disallow="tram rail_urban rail rail_electric rail_fast ship" speed="8.28" length="14.29" shape="6258.79,5505.52 6261.79,5502.91 6264.90,5501.76 6268.11,5502.08 6271.44,5503.86"/>
    </edge>
    <edge id=":5387520365_8" function="internal">
        <lane id=":5387520365_8_0" index="0" disallow="tram rail_urban rail rail_electric rail_fast ship" speed="3.65" length="4.67" shape="6258.79,5505.52 6260.19,5505.15 6261.05,5505.38 6261.39,5506.21 6261.19,5507.64"/>
    </edge>
    <edge id=":5387520381_0" function="internal">
        <lane id=":5387520381_0_0" index="0" disallow="tram rail_urban rail rail_electric rail_fast ship" speed="22.22" length="14.51" shape="5469.52,4305.46 5466.52,4291.26"/>
    </edge>
    <edge id=":5387520381_1" function="internal">
        <lane id=":5387520381_1_0" index="0" allow="pedestrian motorcycle moped bicycle" speed="7.95" length="6.06" shape="5469.52,4305.46 5469.21,4301.53 5469.90,4299.53"/>
    </edge>
    <edge id=":5387520381_2" function="internal">
        <lane id=":5387520381_2_0" index="0" disallow="tram rail_urban rail rail_electric rail_fast ship" speed="3.65" length="2.34" shape="5469.52,4305.46 5470.04,4304.11 5470.73,4303.55"/>
    </edge>
    <edge id=":5387520381_9" function="internal">
        <lane id=":5387520381_9_0" index="0" allow="pedestrian motorcycle moped bicycle" speed="7.95" length="8.25" shape="5469.90,4299.53 5470.25,4298.49 5472.63,4296.33 5476.35,4295.04"/>
    </edge>
    <edge id=":5387520381_10" function="internal">
        <lane id=":5387520381_10_0" index="0" disallow="tram rail_urban rail rail_electric rail_fast ship" speed="3.65" length="2.34" shape="5470.73,4303.55 5471.60,4303.77 5472.64,4304.76"/>
    </edge>
    <edge id=":5387520381_3" function="internal">
        <lane id=":5387520381_3_0" index="0" allow="pedestrian motorcycle moped bicycle" speed="6.44" length="9.03" shape="5476.96,4298.19 5474.61,4299.00 5473.10,4300.36 5472.45,4302.29 5472.64,4304.76"/>
    </edge>
    <edge id=":5387520381_4" function="internal">
        <lane id=":5387520381_4_0" index="0" allow="pedestrian motorcycle moped bicycle" speed="8.04" length="14.26" shape="5476.96,4298.19 5473.03,4298.38 5469.98,4297.29 5467.81,4294.92 5466.52,4291.26"/>
    </edge>
    <edge id=":5387520381_5" function="internal">
        <lane id=":5387520381_5_0" index="0" allow="pedestrian motorcycle moped bicycle" speed="3.65" length="4.67" shape="5476.96,4298.19 5475.63,4297.63 5475.08,4296.92 5475.33,4296.06 5476.35,4295.04"/>
    </edge>
    <edge id=":5387520381_6" function="internal">
        <lane id=":5387520381_6_0" index="0" allow="pedestrian motorcycle moped bicycle" speed="6.55" length="9.13" shape="5469.66,4290.64 5470.49,4292.97 5471.88,4294.48 5473.83,4295.17 5476.35,4295.04"/>
    </edge>
    <edge id=":5387520381_7" function="internal">
        <lane id=":5387520381_7_0" index="0" disallow="tram rail_urban rail rail_electric rail_fast ship" speed="22.22" length="14.44" shape="5469.66,4290.64 5472.64,4304.76"/>
    </edge>
    <edge id=":5387520381_8" function="internal">
        <lane id=":5387520381_8_0" index="0" disallow="tram rail_urban rail rail_electric rail_fast ship" speed="3.65" length="2.34" shape="5469.66,4290.64 5469.11,4291.97 5468.40,4292.52"/>
    </edge>
    <edge id=":5387520381_11" function="internal">
        <lane id=":5387520381_11_0" index="0" disallow="tram rail_urban rail rail_electric rail_fast ship" speed="3.65" length="2.34" shape="5468.40,4292.52 5467.54,4292.28 5466.52,4291.26"/>
    </edge>
    <edge id=":5387520383_0" function="internal">
        <lane id=":5387520383_0_0" index="0" allow="pedestrian motorcycle moped bicycle" speed="5.56" length="16.09" shape="6055.01,4191.80 6039.23,4194.93"/>
    </edge>
    <edge id=":5387520383_1" function="internal">
        <lane id=":5387520383_1_0" index="0" allow="pedestrian motorcycle moped bicycle" speed="5.56" length="17.70" shape="6055.01,4191.80 6049.58,4192.26 6046.49,4190.83 6045.76,4187.51 6047.38,4182.30"/>
    </edge>
    <edge id=":5387520383_2" function="internal">
        <lane id=":5387520383_2_0" index="0" allow="pedestrian motorcycle moped bicycle" speed="3.65" length="4.67" shape="6055.01,4191.80 6053.67,4191.26 6053.11,4190.56 6053.34,4189.70 6054.34,4188.67"/>
    </edge>
    <edge id=":5387520383_3" function="internal">
        <lane id=":5387520383_3_0" index="0" allow="pedestrian motorcycle moped bicycle" speed="5.56" length="9.39" shape="6050.30,4183.63 6049.44,4186.39 6049.82,4188.15 6051.46,4188.91 6054.34,4188.67"/>
    </edge>
    <edge id=":5387520383_4" function="internal">
        <lane id=":5387520383_4_0" index="0" allow="pedestrian motorcycle moped bicycle" speed="5.56" length="16.41" shape="6050.30,4183.63 6047.87,4188.15 6045.21,4191.55 6042.33,4193.80 6039.23,4194.93"/>
    </edge>
    <edge id=":5387520383_5" function="internal">
        <lane id=":5387520383_5_0" index="0" allow="pedestrian motorcycle moped bicycle" speed="3.65" length="4.67" shape="6050.30,4183.63 6049.07,4184.39 6048.18,4184.42 6047.62,4183.73 6047.38,4182.30"/>
    </edge>
    <edge id=":5387520383_6" function="internal">
        <lane id=":5387520383_6_0" index="0" allow="pedestrian motorcycle moped bicycle" speed="5.56" length="13.31" shape="6038.68,4191.78 6041.01,4190.87 6043.24,4188.99 6045.37,4186.14 6047.38,4182.30"/>
    </edge>
    <edge id=":5387520383_7" function="internal">
        <lane id=":5387520383_7_0" index="0" allow="pedestrian motorcycle moped bicycle" speed="5.56" length="15.97" shape="6038.68,4191.78 6054.34,4188.67"/>
    </edge>
    <edge id=":5387520383_8" function="internal">
        <lane id=":5387520383_8_0" index="0" allow="pedestrian motorcycle moped bicycle" speed="3.65" length="4.67" shape="6038.68,4191.78 6040.00,4192.36 6040.53,4193.08 6040.27,4193.94 6039.23,4194.93"/>
    </edge>
    <edge id=":5387520396_0" function="internal">
        <lane id=":5387520396_0_0" index="0" disallow="tram rail_urban rail rail_electric rail_fast ship" speed="17.32" length="11.93" shape="6312.27,5548.83 6311.58,5545.62 6310.76,5543.05 6309.52,5540.66 6307.61,5538.01"/>
    </edge>
    <edge id=":5387520396_1" function="internal">
        <lane id=":5387520396_1_0" index="0" disallow="tram rail_urban rail rail_electric rail_fast ship" speed="8.01" length="5.20" shape="6312.27,5548.83 6312.09,5545.03 6312.56,5543.72"/>
    </edge>
    <edge id=":5387520396_2" function="internal">