<?xml version="1.0" encoding="UTF-8"?>

<!-- generated on Sal 02 Mar 2021 18:52:40 by Eclipse SUMO GUI Version 1.8.0
-->

<configuration xmlns:xsi="http://www.w3.org/2001/XMLSchema-instance" xsi:noNamespaceSchemaLocation="http://sumo.dlr.de/xsd/sumoConfiguration.xsd">

    <input>
        <net-file value="ForwardCollisionWarning.net.xml"/>
        <route-files value="threePurpleCars.rou.xml"/>
    </input>

</configuration>
