<?xml version="1.0" encoding="UTF-8"?>

<!-- generated on Sal 02 Mar 2021 18:51:57 by Eclipse SUMO netedit Version 1.8.0
<configuration xmlns:xsi="http://www.w3.org/2001/XMLSchema-instance" xsi:noNamespaceSchemaLocation="http://sumo.dlr.de/xsd/netconvertConfiguration.xsd">

    <output>
        <output-file value="ForwardCollisionWarning.net.xml"/>
    </output>

    <processing>
        <offset.disable-normalization value="true"/>
    </processing>

    <junctions>
        <no-turnarounds value="true"/>
    </junctions>

    <report>
        <aggregate-warnings value="5"/>
    </report>

</configuration>
-->

<net version="1.6" junctionCornerDetail="5" limitTurnSpeed="5.50" xmlns:xsi="http://www.w3.org/2001/XMLSchema-instance" xsi:noNamespaceSchemaLocation="http://sumo.dlr.de/xsd/net_file.xsd">

    <location netOffset="0.00,0.00" convBoundary="-19.81,63.44,110.26,64.27" origBoundary="10000000000.00,10000000000.00,-10000000000.00,-10000000000.00" projParameter="!"/>

    <edge id=":gneJ1_0" function="internal">
        <lane id=":gneJ1_0_0" index="0" speed="13.89" length="0.30" shape="41.47,62.32 41.77,62.31"/>
    </edge>

    <edge id="gneE0" from="gneJ0" to="gneJ1" priority="-1">
        <lane id="gneE0_0" index="0" speed="13.89" length="61.29" shape="-19.82,62.67 41.47,62.32"/>
    </edge>
    <edge id="gneE1" from="gneJ1" to="gneJ2" priority="-1">
        <lane id="gneE1_0" index="0" speed="13.89" length="68.48" shape="41.77,62.31 110.25,61.84"/>
    </edge>

    <junction id="gneJ0" type="dead_end" x="-19.81" y="64.27" incLanes="" intLanes="" shape="-19.81,64.27 -19.83,61.07"/>
    <junction id="gneJ1" type="priority" x="41.63" y="63.92" incLanes="gneE0_0" intLanes=":gneJ1_0_0" shape="41.78,63.91 41.76,60.71 41.46,60.72 41.48,63.92">
        <request index="0" response="0" foes="0" cont="0"/>
    </junction>
    <junction id="gneJ2" type="dead_end" x="110.26" y="63.44" incLanes="gneE1_0" intLanes="" shape="110.24,60.24 110.26,63.44"/>

    <connection from="gneE0" to="gneE1" fromLane="0" toLane="0" via=":gneJ1_0_0" dir="s" state="M"/>

    <connection from=":gneJ1_0" to="gneE1" fromLane="0" toLane="0" dir="s" state="M"/>

</net>
